615
28.28428 28.28428 28.28428 LAMMPS data file via write_data, version 31 Jan 2014, timestep = 263
Sm	-10.7122365166	-10.390846306	-11.5040997491
Sm	-10.5873600555	-10.1612794388	12.6902443518
Sm	-13.3930309928	-13.3132086202	-10.9546344589
Sm	-2.98244296028	-11.0099366253	12.6233201802
Sm	-6.61459182357	-11.4044621909	-9.24178258027
Sm	-4.3322658101	-11.0307448333	-12.1439243539
Sm	1.69465039845	-8.97738341701	-11.5837348447
Sm	-1.73598497224	-8.21354961151	-12.8499865579
Sm	-1.19548628949	-11.3506156582	-10.7649335052
Sm	8.43800370173	-11.7301564214	-9.62250857993
Sm	7.1911576807	-10.5270353434	11.6363028192
Sm	8.28027500798	-9.86226832238	-12.470541995
Sm	4.44609892656	-11.0708536444	-14.0205584631
Sm	2.44704321822	-12.5895905555	-10.9080504842
Sm	5.59436361345	-13.9741247577	-12.1040468149
Sm	11.408496834	-11.9690283279	-11.7268330091
Sm	12.0975301421	-13.0898367713	-8.42528865461
Sm	-8.89794386612	-3.3817436232	13.7253679436
Sm	-10.9150882304	-3.26937894323	-8.81989686554
Sm	-11.7486101707	-3.90992375611	-12.344155589
Sm	-8.06052545098	-4.48144936236	-10.7246226503
Sm	-12.7630601985	-8.01350699319	-13.1375309672
Sm	-11.0726732276	-6.89179092136	-9.95397675696
Sm	-13.9446153089	-3.98634716823	-7.9492950295
Al	-6.7305480935	-5.54172308451	-13.3975042768
Sm	-7.2259299333	-7.94747209853	-10.4820301066
Sm	-5.19018611215	-2.16569721504	-9.5865497882
Sm	-3.90291059052	-8.32702718158	-9.71949122104
Sm	-4.13122841258	-5.44572715639	-11.4127172735
Sm	-2.44023621014	-1.98942809225	-11.9050332514
Sm	0.104052388276	-4.78455454882	-11.6946859698
Sm	1.01754870375	-6.29955957678	13.8747337718
Sm	3.51813156302	-6.30485731461	-10.8277265887
Sm	-2.17418371666	-3.904084852	-8.83181778419
Al	3.57887330393	-7.83923418839	-13.6587148035
Sm	7.25186427044	-7.15269791869	-9.49054231496
Sm	5.00659554109	-10.1564090715	-10.2678076736
Sm	6.28349718415	-7.35654516989	-12.8487093596
Sm	6.47187333423	-4.01929708512	-11.6250271434
Sm	11.8541126611	-8.41739624291	-13.198157509
Sm	11.0510175946	-4.89262323029	-9.1923543581
Sm	13.7562748306	-6.61189192306	-10.3528482867
Sm	9.85157394187	-5.73711326925	-12.1559860114
Sm	13.7794787874	-5.2362064963	14.0795622567
Al	-13.7651520259	-1.51369865738	-13.6907231745
Sm	-10.9238755576	0.0432124123265	-13.9062089997
Sm	-11.273019425	2.69775582829	-10.8696937647
Sm	-12.9542641656	-0.643340078452	-10.4409608958
Al	-8.50748708541	2.07608826358	-12.6490506856
Sm	-5.65735872372	-2.55638273429	-13.0884279799
Sm	-2.57302099918	3.86217952733	-13.7399867805
Sm	-5.9824676989	0.977104230822	-8.0943553378
Sm	-8.69545804177	-0.770237766404	-11.0190943958
Sm	-5.13034044846	0.865102072563	-12.0937904278
Al	2.40394107238	0.296008631561	-12.7288285917
Sm	-2.47909340681	0.24071058952	-8.65964285938
Sm	3.21838604613	-2.52310368334	-11.2923313077
Sm	0.220597268387	3.72080087308	-9.94199387083
Sm	0.440019844654	-1.07425423794	-10.091293835
Sm	-0.851296310459	1.0924308728	-12.449541634
Sm	5.00929188988	2.11696732034	-12.8788572201
Sm	8.21488944672	1.2884001232	-12.8513926072
Sm	9.36810790961	-1.94138815869	-11.9333657796
Sm	3.08729497667	1.65192793651	-9.99620033523
Sm	5.22470384831	-1.36635546165	-14.1194921374
Sm	6.05741753815	-0.792324242764	-9.85037371355
Sm	6.73398519468	2.69833259694	-9.26609982693
Sm	11.8212487158	-0.857910431249	-8.26689903152
Sm	11.5987444976	0.271778495756	14.0784046617
Sm	8.29944315883	-3.1951506387	-8.37233731409
Sm	12.7246962979	-2.80903972976	-11.4890313155
Sm	11.4163167625	1.38537420334	-10.8296142491
Al	-9.85080843444	8.68118743163	-12.8807091803
Al	-10.1959450683	5.39684356891	-9.58898080513
Sm	-14.0373718442	2.23223741405	-12.8817948738
Sm	-12.2031407651	6.3889214355	-12.0382242395
Sm	-9.06773916698	5.55515462679	-12.6779421865
Sm	-4.88830686777	8.19482400935	-7.83518919181
Sm	-3.58287063009	3.46934867043	-10.4781811716
Sm	-7.93307067205	3.25202068493	-9.78404372007
Sm	-4.20245223669	7.11274344188	-11.4963061918
Sm	-6.04746816267	4.41523973249	-13.1146105027
Sm	4.23092069981	5.30834998561	-11.3784633747
Sm	-0.654554073576	6.87642883438	-12.410837863
Sm	1.53031636115	3.63955694136	-13.2455433169
Al	3.95234414067	8.81314124468	-11.1984478659
Sm	6.79747658565	7.30478945053	-9.62700003041
Sm	6.36527241793	7.84065599821	-13.1012416451
Sm	8.76856794119	4.61850402329	-10.8957712302
Sm	10.0097024507	7.20264306863	-12.9874121205
Sm	11.160405168	8.0566197789	-9.05867210845
Sm	12.4962893808	5.04811566356	-10.5218846618
Sm	10.9598669084	3.75919938128	-13.5908033062
Sm	13.4815165829	6.01962882601	13.7589485868
Al	14.1189358325	12.7228378705	-8.79843414332
Sm	-12.4229028761	8.33972241622	13.2693129855
Sm	-8.7497392678	11.3910558864	-11.3178210864
Sm	-10.5584203595	-13.8785094975	-13.0299217091
Sm	-12.170928597	10.9589690347	-11.88057282
Sm	-4.0657208943	11.4971728812	-7.34191426569
Sm	-6.97908074871	-13.7106798922	-11.907908393
Sm	-7.49184398172	7.36208953818	-10.3475621205
Sm	-6.66104786289	12.0176729923	14.0461863118
Sm	-3.80042669583	-14.0746465683	-9.83684170734
Sm	-5.4785371554	10.8323206131	-10.7763530475
Sm	-3.26699009545	13.7136691475	-13.066021128
Sm	-1.79830502644	10.196751666	-10.1326580268
Sm	0.885991601946	10.3277962943	-13.1042747714
Sm	-0.207670363355	13.3273592772	-11.6183042719
Sm	2.40053855507	13.8730883679	13.763641374
Sm	-2.82321059777	10.1494564211	-13.3635699333
Sm	9.12550110619	13.3262311633	-10.5940728225
Sm	8.40312290263	11.4899096276	14.0743305519
Sm	2.88867637208	11.8664414621	-10.8875712735
Sm	6.3383196257	10.8564303102	-10.8137607205
Sm	5.76908109761	14.0517584457	-8.55873173414
Sm	8.78670679341	-14.0392518151	-6.7075974313
Sm	4.67807314653	10.8194294743	-13.9371578564
Sm	-13.9043276612	9.55846633031	-8.89014614032
Sm	12.5828098562	12.0043808352	-11.2757665741
Sm	13.4735730315	8.5595335935	-11.9714326395
Sm	9.73959496327	10.0545206476	-11.3499486487
Sm	-11.16059036	-10.9622393457	-5.17107278288
Sm	-9.92127676972	12.9597512135	-5.67229381884
Sm	-9.65548139382	-9.59140546054	-7.88275901714
Sm	-12.916634259	-13.1946076862	-7.1017634187
Sm	-10.0143374539	-12.9142111397	-9.16648582785
Sm	-13.4497739753	-9.95031652977	-8.53601281408
Al	-4.29417665096	-14.1203300602	-2.94109097396
Sm	-1.71856999486	-12.4791174193	-2.83341776886
Sm	-6.25024352001	-9.24383438533	-6.68816610531
Sm	-7.92509774566	-12.1476623267	-5.02578751539
Sm	-4.35716191699	-11.0344899968	-4.13156090562
Al	-1.20951994256	-10.3526590615	-5.11980795664
Sm	0.361519835859	-13.2495819168	-5.4310765277
Sm	0.728954075305	-7.81094676792	-5.46729272311
Sm	2.3936054891	13.6901450099	-8.1117115268
Sm	0.868416246993	-10.7045780085	-7.93216761623
Sm	-2.70553028604	-10.9369740869	-7.77109841547
Al	6.12634972398	-13.0386240194	-5.4114473969
Sm	7.06020035408	-10.0455466378	-6.9842182035
Sm	8.31279620835	-11.879916473	-3.54294763446
Sm	5.09117895782	-9.67816507096	-4.1358213568
Sm	3.72116253493	-11.6402034875	-6.69060044792
Sm	4.01146858044	12.6689225465	-5.01661621806
Sm	13.7500989521	-10.5750598887	-5.15411695091
Sm	8.70059348342	-8.35754941404	-3.89914745929
Sm	10.5674936192	-10.5627780793	-6.46831202596
Sm	-12.18862447	-13.7709618806	-3.59914866786
Sm	11.7625024523	-13.9961915146	-4.58188084515
Sm	-12.1558157602	-6.9052516962	-6.39612118447
Sm	-10.6230776173	-2.8386536789	-5.31043488527
Sm	-9.23281478551	-7.98485357857	-4.27324657308
Sm	-8.70257105508	-5.96597347433	-7.19369583973
Sm	-10.7412222737	-4.63580034402	-2.18176130027
Sm	-12.5559558601	-8.23989935317	-2.9858529168
Al	-6.32004781414	-6.79491244469	-4.93585953697
Sm	-4.04802797906	-5.38113263953	-3.30646393675
Sm	-5.18146382816	-5.35853364792	-7.49583679396
Sm	-3.18631754305	-7.9125831613	-5.81248987458
Sm	-7.54147927364	-4.23681296704	-3.81696456427
Sm	1.35731341154	-4.60380622408	-8.46952176249
Sm	0.290475457602	-4.90793554639	-2.85712913703
Sm	2.62319875902	-4.4105198584	-5.39043305442
Sm	-1.51434583689	-5.08346726518	-5.72893870176
Sm	-0.639746445908	-7.46945937524	-8.98492550345
Sm	3.55815993739	-7.91723723037	-7.47458032175
Sm	3.02168503753	-1.40225044988	-7.63496147292
Sm	5.11675631895	-4.39369190268	-8.1123221275
Sm	6.18489786228	-6.07414571963	-5.20304450053
Sm	9.19650215209	-6.51232724437	-6.87095358891
Sm	-14.1307186824	-4.45928254978	-3.76700448887
Sm	12.5649971495	-7.20075608	-6.0179275133
Sm	10.9733690472	-8.86228838153	-9.51826980573
Sm	11.3049714992	-3.192703271	-6.00819675056
Sm	10.2956839487	-5.27365865513	-3.5218858089
Sm	-10.8701464808	1.38661827562	-4.00929971471
Sm	-7.36747272926	-0.251426735372	-4.40354395968
Sm	-10.0769440398	0.453982321877	-7.72938165632
Sm	-11.5433860397	3.64695295993	-6.79609716785
Sm	-4.23227705114	-1.83161746089	-5.62555336249
Sm	-7.68780014997	-2.47706889237	-7.33616609164
Sm	-4.77970250874	2.5007716707	-5.02183041856
Sm	-0.308591823684	-1.89416753621	-6.31750856286
Sm	-1.3985461183	1.09814545053	-4.68848589231
Al	8.93464286882	0.217459765419	-9.41959858017
Al	8.25320093141	-3.63756480445	-5.22022078768
Sm	2.09813782877	-0.971814012899	-3.6968777671
Sm	4.664511332	1.39312796521	-6.44083630712
Sm	5.76429678519	1.54933875587	-3.10954251943
Sm	8.50053331467	-0.112057391557	-6.22914762234
Sm	5.6221098644	-2.1215094823	-5.14933210148
Sm	-13.3807525664	-0.765260905033	-6.13577952165
Sm	9.58592883993	2.00766764531	-3.08936974246
Sm	-14.1158028747	2.26067149243	-8.55885257995
Sm	13.2908666372	2.17907225811	-4.86194398206
Al	-12.3681821337	6.38119880668	-5.55402147292
Sm	-8.89880907866	6.62404470314	-7.01215124359
Sm	-8.17996355693	3.15840676883	-5.85304105417
Sm	-10.6233633965	8.5818567063	-9.78590900011
Sm	-14.0920362107	8.46274823687	-3.79987543811
Sm	-9.89128072839	5.65495840666	-3.76034409597
Sm	-2.1873073114	3.26989553563	-7.16251590768
Sm	-5.53261871758	4.92339675211	-7.9281916753
Sm	-6.17900585057	5.86838778348	-4.10172140596
Sm	-3.09671015526	6.16884784958	-5.31428258933
Sm	-0.752116762661	8.14345651004	-3.48711021884
Sm	0.416663146586	5.26043596662	-5.81676136826
Sm	-1.88624949951	6.35342264678	-8.91380344806
Sm	1.19180112192	1.72091830163	-6.97082339357
Sm	2.65752373923	8.07469002278	-5.56807774694
Sm	3.76784598575	5.06847822947	-7.9043531744
Sm	4.04046756976	4.62614192885	-4.46144414201
Sm	7.3249903745	5.3605040259	-3.10857077077
Sm	1.80271610904	2.57530513415	-3.18080570317
Sm	6.32042284456	7.28030962713	-5.83934234322
Sm	4.73643205001	7.7651570639	-1.69784421599
Sm	7.37679628357	3.52430026698	-5.89038192119
Al	12.8438414866	9.02795944116	-6.43103579007
Sm	-13.2347701953	4.74813435686	-2.93291881484
Sm	10.1393940892	8.38324848483	-5.00945148031
Sm	9.22480963384	5.89390673507	-7.45910007223
Sm	-13.0242209982	6.23374473631	-8.73109946876
Sm	12.9589420467	5.77329355373	-6.4881320815
Sm	10.5598106604	2.68743920936	-7.47413965756
Sm	-11.3348266781	9.17723267848	-6.08948308326
Sm	-8.40930845819	9.45338050053	-3.7858329311
Sm	-11.5318697329	10.9925181057	-2.78191921228
Sm	-11.1298172351	12.1400017802	-8.78330343688
Sm	-4.64508093125	9.3233255505	-4.3622170348
Sm	-6.39304860367	12.6895411996	-4.64298791004
Sm	-4.13325112897	-13.4697669637	-6.24828620681
Sm	-7.22038522325	13.4619584343	-8.23984428291
Sm	-7.82299101377	10.1511491153	-7.49394130272
Sm	-5.31372170727	11.1474524319	-1.52403810504
Sm	1.49858779866	7.82853887109	-9.46495966347
Sm	-0.999183889663	13.4488561808	-8.15171810567
Sm	-1.26492737499	9.13447384878	-6.82043566792
Sm	0.781559533761	11.3575923568	-5.57703439266
Sm	-2.29687207087	12.3420054544	-4.25875012673
Al	0.942482502351	10.852092752	-8.67758719917
Sm	7.36899453455	13.1894498407	-3.01470307915
Sm	4.26688942781	10.200643353	-7.82129453387
Al	11.932403158	10.8989231953	-4.48173421412
Al	9.28221479675	11.6045919766	-5.10064582538
Sm	-13.756948783	11.8629382227	-5.77293309753
Sm	8.0429741272	10.2759986336	-7.72110766356
Sm	11.2957619192	11.5892902722	-7.66711090081
Al	-11.7108926928	-11.7243322322	0.681374600898
Sm	-13.9832514852	-11.8668704547	-1.57659990602
Sm	-11.8384966525	13.5950990553	-0.156232285618
Sm	-9.84319493059	-11.0406559052	-1.58007252855
Sm	-12.5957807996	-12.4147418505	3.41630608463
Sm	-6.22460756883	-8.85051989977	-2.51069524096
Sm	-7.06839813445	-10.1556248053	1.25108461281
Sm	-4.97646614454	-12.8398442878	2.71598042457
Sm	-3.5967316408	-10.7621778907	-0.243136525836
Al	3.09931596856	-13.5697438562	-0.0978082630666
Sm	1.59209876564	-10.612238267	-3.64821737153
Sm	1.03870159049	13.4706628468	-2.27480265604
Sm	0.512919763328	-11.4360852966	-0.284604464728
Al	6.94922916584	-10.1432186474	-1.4919494779
Al	6.09353277016	-13.1740043145	2.90012341055
Sm	3.92994481347	-10.3281689691	-0.525172936263
Sm	6.39718220569	-13.009800261	-0.153434218194
Sm	4.18101040041	-12.8991015946	-2.96666090302
Sm	3.19040104485	-12.0410689062	2.60497957871
Al	9.11709702486	-11.1123524479	-0.149541231834
Sm	9.67919665235	-9.6766517079	2.79344572957
Sm	12.6234034972	-7.6753568772	-1.95457153492
Sm	11.3176092716	-10.5485932855	-2.75873988047
Sm	10.443923436	-13.8847830947	-0.990104428799
Sm	12.2820004744	-10.7986307295	0.923389161522
Sm	9.48664945182	-8.01458920059	-0.592818755295
Sm	13.2501106502	13.6865288726	1.66880425455
Sm	-10.9759660563	-5.77974938978	2.01231758416
Sm	14.1064436359	-4.66171545115	2.90557076095
Sm	-12.8917708618	-8.87691801289	0.579946267008
Sm	-13.3611179285	-5.60708623889	-0.333144024327
Sm	-7.79207677941	-4.09826739987	0.476250604526
Sm	-4.92319504845	-6.8673028476	0.390785258957
Sm	-10.7393373541	-2.08433423827	1.39216404589
Sm	-9.19828576015	-7.45828104529	-0.606893315019
Sm	1.00058429714	-5.55773258121	0.726184691147
Sm	-1.35128864273	-8.47066531022	1.01839240208
Sm	-1.80583518982	-8.31684709079	-2.48679406101
Sm	1.05909896786	-2.24730997751	0.0795216704003
Sm	-2.17902434927	-4.66513204916	-0.192800701895
Sm	1.84138217189	-8.57816939813	2.64161438648
Sm	1.79937843648	-7.92364083143	-1.54468576465
Al	3.40396236251	-7.13811871202	-4.06026087075
Sm	7.32644800792	-4.44349676125	-1.74343044183
Sm	5.11177100141	-1.60871597953	-1.66003282337
Sm	6.41533768658	-9.66366617352	1.73464152414
Sm	4.419691552	-6.58424853467	1.34587116655
Sm	3.6583515695	-4.61246345509	-2.09137210602
Sm	5.87494398722	-7.35773738433	-1.59617685194
Sm	8.86377651208	-1.59299843269	-2.77696745502
Sm	11.3567455398	-4.19996305621	-0.178041635207
Al	-12.5051428179	-1.6936153674	-3.13144467204
Sm	-13.7030422084	-2.23776249708	-0.201090752937
Sm	-9.45931844313	-1.25168363108	-1.79595839445
Sm	-10.3040873831	1.43649596263	0.64295273113
Sm	-13.7226404515	1.13499708811	2.02640679259
Sm	-4.13121132405	0.917554076164	-2.16690607687
Sm	-5.28940446861	-2.68815408052	-1.56034920421
Sm	-7.35559532664	2.53343684491	2.61520627842
Sm	-7.74500351027	2.80478238257	-2.06609915071
Sm	-6.48314146214	0.124574343002	0.189209722926
Sm	-2.89187608722	-0.974552899544	0.687332286582
Sm	-0.0587744603813	0.626618359857	2.73046910336
Sm	-0.453806692855	0.764774094595	-1.18825138614
Sm	0.768506592717	3.50109727563	0.373209420295
Sm	-1.75697748268	-2.13416498575	-2.89766882289
Sm	3.09678962155	2.54460841948	3.01633302115
Sm	7.16839111847	0.485504757584	-0.220988859248
Sm	6.04290131096	-0.277776155685	2.92069686963
Sm	7.2882786548	3.04334794443	2.42110910826
Sm	4.61171362865	-3.12299261074	1.19992923104
Sm	3.2043542388	0.557556064476	0.151564610215
Al	9.26384536171	0.447960362346	2.26617680797
Al	9.67176996584	2.24489909096	0.153053519116
Sm	11.3970177583	-0.236510814931	-0.204334337519
Sm	12.304392534	-1.14635926196	-3.4033669329
Sm	12.4474024934	3.16150415171	-1.08128140793
Sm	-13.1661389585	0.932392016197	-1.57571159883
Sm	-13.3889780366	4.59793501853	0.95687476939
Sm	-10.9480465946	3.8409058016	3.70773750789
Sm	-11.4822368098	7.63383871974	-1.27530225725
Sm	-3.53129701006	6.84421017069	2.9245836293
Sm	-7.5419122745	7.35158481937	-1.17037028501
Sm	-5.49191684298	4.7573844999	0.113371896442
Sm	-9.85232943593	4.94151316771	0.227637062597
Sm	-2.96133903171	2.78946012503	1.04896150926
Sm	-7.8123910273	6.25925643262	2.93484150487
Sm	1.61934157975	6.16874292368	-2.00257575191
Sm	-1.0861497214	6.62244468247	0.426953578404
Sm	-0.727098783563	4.021508959	3.59048075338
Sm	-1.94673989977	4.25428448501	-2.56144856517
Al	6.90913866504	9.9861156822	-0.689388542549
Al	7.44528602549	3.48258527627	-0.738129946481
Sm	4.38121075624	4.01424188582	-0.466014506196
Sm	6.70453912059	6.29978903232	0.959488195865
Sm	2.53660989601	6.41542520078	1.96195230372
Sm	12.5530676575	6.95075044038	2.33145850968
Sm	10.0262645084	5.2483858573	0.232474004335
Sm	10.9875565887	5.15084241431	-3.7364353859
Sm	8.8138688894	7.88298121451	-1.79422787983
Sm	-8.687973349	13.2515366801	-2.03426785963
Sm	-9.01248350404	-13.4030845163	1.54214221585
Sm	-9.26319399346	10.5471971503	0.395873256177
Sm	-5.8846407812	12.479071836	1.39299733602
Sm	-3.84264893028	7.58423377341	-1.31982305312
Sm	-6.28039694125	-12.7626819744	-1.22406709793
Sm	-6.01013958474	8.98114293228	1.66383730895
Sm	2.28999381886	10.0791590341	-2.80301142506
Sm	0.680692714806	13.1435352355	1.21638126715
Sm	1.58279657076	9.53712339176	0.442838359024
Sm	-1.34023643619	10.6775821858	-1.49446784015
Sm	-2.3596273261	10.0698571379	1.73127558374
Sm	-2.67147906908	13.8702033178	-0.0968696968255
Sm	4.47637141376	11.9310935056	-0.908854656917
Sm	6.4540241916	10.009207846	-4.00095365261
Sm	13.365458237	12.2447605072	-1.97668144647
Sm	9.92349336334	10.9472343631	-2.05691594603
Sm	-13.3910966756	10.016876379	0.378661165166
Sm	11.2916213968	10.8993069797	1.0096242933
Sm	12.4224021186	7.64703559928	-1.15641386857
Sm	-11.3129793037	-10.4119747608	6.4409954338
Sm	13.6244129235	-11.7096827069	7.11667945527
Sm	-10.2622930575	-9.61405194833	2.73883039963
Al	-5.52400656134	-11.1655586297	5.45042060006
Sm	-2.6175173394	-12.1209085662	5.81476530802
Sm	-8.37709762956	-12.0439681876	4.78652825752
Sm	-5.53587582598	-11.4313090371	8.55340990534
Sm	-2.15751219031	-10.1783210295	8.96581959031
Sm	-4.24351459895	-9.20534257814	3.36233012876
Sm	-1.0076748027	-8.96381045542	5.49629470322
Sm	-0.861099515643	-11.734598221	2.89590331069
Sm	0.449973397368	-12.3175276246	7.46900096739
Sm	2.53969474196	-10.3530608803	5.61328617219
Sm	7.81644167245	-8.90759849855	8.0977695215
Sm	4.15509851337	-13.4757758118	6.26582080461
Sm	7.30904538009	13.6544055701	5.34773282853
Sm	4.10106907022	12.7356686407	2.57044573749
Sm	6.40810655623	-10.8829493799	4.96133628651
Sm	9.23066005085	-13.0796163559	2.38322818542
Sm	9.52055859076	-11.6708375007	6.04596821197
Sm	12.1757003222	-12.1809393858	4.16241709686
Sm	11.4728524672	-8.70957325146	5.80916105037
Sm	-11.8312648665	-4.70184766946	8.54660541205
Sm	-11.2143305129	-6.80866050399	5.45275522816
Sm	-13.7978608624	-8.84794128877	4.07547668227
Sm	-10.1581404127	-8.1365838586	9.25829076098
Sm	-11.6612612451	-3.14428509477	5.3839374609
Al	-6.98046655398	-8.29571942745	8.89345940292
Sm	-5.56370768504	-5.38691558061	4.79089173772
Sm	-7.64307789974	-7.11800510112	2.9676365328
Sm	-8.18527580059	-2.45068827111	7.04505623507
Sm	-8.60642585022	-3.83326510601	3.92900933997
Sm	-7.8285227617	-9.04477912987	5.95721402279
Sm	1.47793666904	-6.6825435401	6.36283291552
Sm	3.9609366347	-4.14083356471	7.16038664757
Sm	-4.43672445756	-8.13216502946	6.73393595888
Sm	-1.78386896067	-6.25331208693	3.36858165011
Sm	-4.63779059158	-3.45573016858	2.31541384543
Sm	-2.2371358832	-4.55194011782	6.08582735599
Sm	4.86054406084	-7.44731596096	5.0704052538
Sm	6.16964090115	-3.99743613778	4.02925311783
Sm	7.44077166073	-4.96728572108	7.06382811571
Sm	7.92618250682	-6.01421412332	1.65080700289
Sm	2.17769395497	-4.60264526721	3.81463485807
Sm	10.3909200536	-4.64141594849	4.12325218813
Sm	8.24396773651	-7.49968650713	4.79807998048
Sm	10.4963074239	-6.31938742716	7.91716575323
Sm	11.9376298567	-7.20226188134	2.09649231134
Sm	13.5349512818	-5.37322651324	6.21988674752
Al	-9.43123403093	-1.0287784293	11.3514830225
Al	-13.2462919133	-1.69581238265	3.11637138255
Al	13.4568380016	-2.37624282081	5.43452306524
Sm	11.8895813094	-1.37103249981	3.03913145166
Sm	-10.8318999497	2.77959917259	7.24746934905
Sm	-10.7774370307	-0.744696989284	8.44025433852
Sm	-10.0046756436	0.165246770155	4.347513693
Sm	-13.1421710579	0.422188364768	5.42636793573
Sm	-4.81004185711	-2.07882500054	6.21277502706
Sm	-3.68490333868	0.512796396684	3.95657526546
Sm	-6.87963784524	-1.10949738831	3.29016486563
Sm	-6.8887314076	0.951544079508	6.38642379724
Sm	-0.95600145532	-2.74179197188	3.32294226463
Sm	3.83263990127	-0.0112355164707	8.65730351162
Sm	-1.29725902614	-0.79274521045	6.31120483
Sm	-1.54179890248	2.72381585511	6.93396407675
Sm	1.57671086728	1.37154673767	6.36643076022
Sm	8.99769780714	2.04290736179	5.1665843307
Sm	2.85796217072	-1.21105318852	4.39807771054
Sm	5.32055778146	1.67775560406	5.68508834545
Sm	6.43978409754	-1.66682402523	7.06407028715
Sm	8.82932511535	-1.27500485273	4.86290511246
Sm	-14.0035864477	2.05959049797	8.56701783994
Sm	11.8476687795	0.597571442708	6.22969446911
Sm	8.49301169776	-2.43767192412	1.2415523134
Sm	10.6671534643	3.74105045575	8.18832955625
Sm	10.7438900023	-2.69785133396	7.24154515507
Sm	-11.8602560867	7.65070069104	3.13075418436
Sm	13.651645264	3.85798450029	5.13322120881
Sm	-12.3211968856	5.88230367035	7.14967342682
Sm	12.943678498	7.14186497902	6.09957883365
Sm	-9.47895994024	7.27297314838	6.22482933677
Sm	-8.7782627268	9.79568971049	3.89904115594
Sm	-5.70196015087	7.63190094711	5.79742462534
Sm	-4.74254007408	3.94166340237	4.4637281635
Sm	-8.03892939042	4.22466302209	6.12485535981
Sm	-0.0190277973901	6.95434107038	8.31706419745
Sm	1.88254804984	4.75456506391	5.9596841581
Sm	0.0797709346957	7.51333678236	4.11956937393
Sm	-2.42256565126	5.87507522231	6.29520785759
Sm	5.18863483146	5.16829529966	4.03664959549
Sm	9.67772111104	5.54146230958	4.20102172021
Sm	5.83388154586	8.43284146281	8.80704720994
Sm	3.60512484625	7.60555858717	6.00825979972
Sm	7.19716461856	4.78284221732	6.71437595949
Sm	7.07491540618	8.00191075729	5.14656216303
Sm	4.42891693345	3.82240334719	8.60176334897
Al	13.3248955057	5.07037321617	8.7497876641
Sm	11.4929759161	2.7187864619	2.62337752385
Sm	9.70806067972	7.34091077083	8.03978232042
Sm	-11.6452306685	11.9330444732	3.08120651338
Sm	-10.7147633389	13.6788007851	5.91505131959
Sm	-12.2416521352	9.95448341817	6.67219941647
Sm	14.0338508287	13.2474753107	5.42273526858
Sm	13.4959833507	10.1292899762	3.75442679358
Sm	-1.10897090256	10.6678727333	9.49138630218
Sm	-4.65028020122	10.6910618853	8.34445963939
Sm	-5.08523414953	13.8496298378	6.28592432819
Sm	-2.01939053926	9.40338209677	5.94272587466
Sm	-7.77793214953	12.9029516868	4.07455128164
Sm	-8.07070869351	10.8373958944	7.19389937633
Sm	-4.84389513744	10.8956937377	4.50969814153
Sm	1.25777849412	13.8636898638	4.89162309988
Sm	1.34167454319	10.5273078366	3.86089226228
Sm	1.82316050415	10.2560173999	7.5094322829
Sm	-1.35716564961	12.6452830178	6.75176089602
Sm	4.73402980747	11.007404881	5.58764008866
Sm	-2.19906996451	13.1224204524	3.51155609122
Sm	5.11206146194	9.2655350288	2.20859740671
Al	7.57126055694	10.8021155572	4.02096394961
Sm	8.93185047273	8.78858571789	1.66984872762
Sm	7.65382519695	12.341848213	1.28382268481
Sm	10.8322917167	13.8553473964	7.90748029369
Sm	10.3602311341	9.06264775162	4.68819171684
Sm	10.4614934675	12.5079124998	4.32364061622
Al	-11.8794806564	-12.9543732611	8.23170185795
Sm	-12.047803931	-13.8069425287	11.6155125678
Sm	-13.7666434959	12.4335205217	13.9032303123
Sm	-13.8546321729	-11.564643082	14.0839352607
Sm	-12.8968901197	-10.6754632284	10.034822564
Sm	-9.20460836505	-11.8039859916	9.01211893593
Al	-7.97171808747	-14.0884599139	7.22841963262
Sm	-7.6606933728	-10.6147619708	-13.4160064241
Sm	-8.64138594859	-13.6074926228	12.3373680648
Sm	-6.9994466543	-10.3952314814	11.4844184777
Sm	2.72839324093	-9.14286193671	12.1462802056
Sm	-2.69084931008	-13.9660125833	9.62573958288
Sm	0.395930637645	-11.8939880076	11.1648648636
Sm	0.105388927587	-11.5251027019	-13.7958001623
Sm	1.40409062935	-9.17342574654	8.76495603564
Al	4.9135462728	-10.462845505	7.54353694438
Sm	7.21529409627	-12.6275208808	8.51076534245
Sm	3.77640593352	-11.9332125726	9.90615205484
Sm	8.19159724777	-12.9729232499	-13.8650182314
Al	13.8997600235	-10.045833076	-11.3810175236
Sm	9.01546437336	13.9723517053	11.0783051351
Sm	10.8706121945	-10.5563554198	9.24392427432
Sm	13.5111148035	-8.46431150471	11.9555358517
Sm	12.8364584956	-12.8939875122	11.0508585412
Sm	10.6628722432	-10.8963283971	12.9464127028
Sm	-11.6465501949	-6.27750344405	12.0124770921
Sm	-8.87244636324	-4.08214192814	10.2515290375
Sm	-9.3385181389	-7.25563046057	-13.2903994233
Sm	-8.34899530066	-5.89477229837	7.08269883057
Al	-2.94079061981	-5.43418187599	10.9859899769
Sm	-4.99781704611	-7.94937306356	-14.116474458
Sm	-7.77798149698	-7.03230576631	11.8729098204
Sm	-1.36575003605	-6.4927877233	8.60872039787
Sm	-5.38512061089	-5.08760339331	8.63535508704
Sm	-5.52881283581	-4.18547190442	12.1998319195
Sm	-0.205986707533	-3.86869284267	11.4341415212
Sm	-0.957589748627	-8.08991861531	11.8088255941
Sm	-2.45902040618	-4.72417893611	13.880231004
Sm	2.30451200122	-5.92377332042	10.298687259
Sm	-4.40568427264	-8.0376481182	10.6727237056
Sm	3.86418399295	-4.67050394982	13.792917035
Sm	0.870092556562	-3.03285273868	7.7626096547
Al	7.68052760724	-6.27877893975	9.90813383212
Sm	5.62730243786	-4.0477573073	10.4391623321
Sm	4.70495581078	-7.7150516117	8.7341753808
Sm	5.85365660452	-7.53337967224	12.0727823959
Al	10.9256783146	-5.85815114054	13.1656966051
Al	8.80127734759	-7.84041258728	13.600774817
Sm	-14.0930312081	-7.94237879422	8.3675806538
Sm	9.16114237345	-3.49400426977	10.1196202895
Sm	11.6336976367	-2.86004346972	13.1011898404
Sm	10.1984608131	-7.67783022785	10.9768937819
Sm	-7.25613828365	-0.0953543487149	13.3296868416
Sm	13.0889278813	3.23559398233	11.6034464097
Sm	-12.1627345341	-2.72521633693	11.8486211831
Sm	-14.1306886654	-1.78164453873	8.43996929171
Sm	-6.28964367164	-1.42376171009	9.98434372372
Sm	-4.89091766782	2.19288303121	12.1547888707
Sm	-3.71833747842	0.815439407649	8.84621226161
Sm	-2.80385958618	-2.72670475834	9.42809327941
Sm	-7.7769583945	1.59109526886	9.59471572729
Sm	-3.10524882215	-0.938672432494	12.7734214215
Sm	-5.2467545223	4.20186587907	8.28380194104
Sm	0.701369148529	-1.85054618909	14.0893265717
Sm	-0.944192726243	1.83225447083	12.2741006362
Sm	2.54476706534	1.35763481951	12.4568607235
Sm	0.000156477699075	-0.21801062667	9.83945619531
Al	6.31165796987	-1.12071449361	10.2832902875
Sm	7.90216764387	-4.66047549518	13.2555043492
Sm	3.01361790736	-2.10590912862	11.0735128479
Sm	8.03266037199	0.992941702366	8.59804427907
Sm	5.88345218508	1.61526024138	11.7789802443
Sm	8.43243876102	-1.11006950496	12.5188988168
Sm	11.3420684603	-0.301600519152	10.0751122461
Sm	-13.879554562	0.0758848920503	11.8818984863
Sm	12.9486062525	-4.76688533882	10.3309171461
Sm	-12.3817071143	5.3088094703	10.6728567202
Sm	-11.6774757021	3.9026507925	13.676567752
Sm	-9.1045359165	7.09861677646	12.5119837818
Sm	-11.0995417538	1.64421995113	10.97865224
Sm	-10.5858249186	8.59677649339	9.71023421058
Sm	-9.16467684857	4.91095749837	9.59825348464
Sm	-8.53847906639	3.17997549289	12.753843582
Al	-5.65825284132	8.43605373026	11.5631475509
Sm	-5.97001251833	5.3581839264	11.6735002701
Sm	-3.41023190854	7.62472092276	9.4803373407
Sm	-6.63022502372	8.59734020564	-13.790002559
Sm	-7.06836128529	7.61539713099	8.96958731225
Sm	-2.40658346722	4.31552557123	10.2045851948
Sm	1.21323858098	3.37795782395	9.54534879666
Sm	2.8253573903	6.99818627714	9.97202281938
Sm	0.193611472139	5.39568812351	12.2555221296
Sm	-3.36115830147	6.95960923218	13.1758805382
Sm	2.55469476708	7.51366254878	-13.9542883324
Al	4.72685667174	8.30254164199	12.1747352647
Sm	7.50735486144	4.66636237389	13.8534500894
Sm	4.25735510635	4.94897727199	12.5849161184
Sm	11.9072900938	9.56567844593	13.3552741063
Sm	9.50204173596	2.34127338333	11.6527191608
Sm	10.7151663786	6.02146639569	11.5177802117
Sm	13.4475428345	7.90485659693	9.93983216208
Sm	7.83703661999	7.86937300849	12.1609855718
Sm	7.32424287806	4.90168677162	10.1574281739
Sm	-10.2153517236	11.1101418122	13.2013988443
Sm	-13.8273124612	13.2203148292	8.69208790786
Sm	-13.0036590816	10.7503508932	10.707261575
Sm	-10.1677371567	12.6551479459	9.3310975759
Sm	-7.65932190162	10.6507123954	10.9821667528
Sm	-3.93060862864	11.0544053134	11.8386437918
Sm	-6.40698253603	13.6040349558	9.85675934319
Sm	-5.171184908	-13.4060022416	12.737053479
Sm	-0.865129104533	13.0177566314	12.6830510631
Sm	1.54572977629	13.3640105307	9.47886214192
Sm	-0.504834129314	8.76825673197	12.1434289609
Sm	5.0864665165	12.5742862203	8.75505775134
Sm	2.59885787793	10.6578006988	11.4145468671
Sm	5.46241812083	14.0252397631	12.1223324933
Sm	6.47602888778	10.8193608732	11.2432446615
Sm	12.27402872	10.4658104997	7.47453757162
Sm	9.75361734236	10.0226364925	10.3524621871
Sm	12.1959542858	12.054697906	11.0977311277
Sm	11.349337378	13.7111571135	-14.0502448976
Sm	8.31641016745	11.0480822307	7.39506236819
