779
28.2842712476 28.2842712476 28.2842712476 LAMMPS data file via write_data, version 31 Jan 2014, timestep = 539
Al	-13.4925897726	-11.088596253	-11.865463177
Sm	-12.0573216257	-8.27398483217	12.5287692247
Sm	11.89129084	-12.4626660138	-10.4891249791
Sm	-12.1156021666	-6.38008510484	-11.8836212725
Sm	-10.8938328412	-6.50646859563	-8.78932578019
Sm	-4.36425033093	-7.88360331025	-7.09946358918
Al	-1.83957553932	-8.84349585819	-8.81380790696
Sm	0.555079247413	-10.8897918791	-9.21676107126
Sm	1.17225702197	-11.6992643873	11.5080802683
Sm	2.86987442559	-10.4443297819	-7.83978044525
Sm	0.656320591444	-10.011180587	-12.2883066902
Sm	1.90913360809	-11.9890916841	-14.1013908016
Sm	2.95684115602	-9.15492865072	-13.5168050542
Sm	2.31804885592	-13.0751794591	-9.04146593571
Sm	6.71786017692	-6.83818119765	-12.4342454672
Al	7.28455004729	-11.9512341499	-13.3384145137
Sm	7.34421174483	-13.6422848754	-10.0491277838
Sm	5.43960390007	-9.16662585634	-11.9575130956
Sm	8.43958279655	-8.92643979259	-13.2992295283
Sm	12.615408964	-9.88619842063	-13.7299600508
Sm	9.82084555607	-13.599836426	-8.92242851665
Sm	10.175852338	-10.9635095932	-12.8644510969
Al	-12.1129516744	-5.22859746338	13.4089794426
Sm	-13.3209292325	-7.10575424176	-7.63671831729
Sm	-13.7673947433	-8.23349060059	-10.5030478458
Sm	-12.9152913781	-3.63980911403	-12.219747037
Sm	-4.46691908369	-3.51851288057	-7.24656944766
Sm	-13.1432337263	-5.03916076519	-9.76865448793
Sm	-0.433226334444	-6.54244908696	-10.437329413
Sm	-2.74424003402	-5.73699216198	-8.19426270047
Sm	-0.430184311027	-4.01644700835	-8.8883614134
Al	2.25892151614	-4.89788881621	-10.2369980491
Al	2.27460922309	-8.36057957793	-10.2280262085
Sm	3.85539312966	-6.78145602249	-12.6219535256
Sm	5.04835601126	-9.40234948946	-9.01268441329
Sm	7.74471217873	-4.50508310803	-13.0371059455
Sm	9.18571091738	-11.3651536689	-10.4481676017
Sm	7.69113060611	-5.04880204382	-10.3321648723
Sm	5.46309557995	-5.41737325999	13.7550817602
Sm	9.68570808109	-6.52833207239	-12.2936721843
Al	11.4388513582	-8.93443103546	-10.8962987953
Al	12.9784410616	-5.62219882623	-12.1315588978
Sm	11.4758940178	-7.50257419934	14.098973662
Al	-13.3722691886	-1.93426087925	-9.03822857638
Al	-10.2964839595	-3.68763333617	-10.6232185975
Sm	-11.7286037052	0.00745815328175	14.0709705963
Sm	-8.67685474896	-3.0805198237	-7.89620220282
Al	-7.24378091923	-0.825118291054	-9.81852011611
Sm	-3.51829630215	-1.20066308742	-6.5243812137
Sm	-2.73519999958	0.905597220668	-8.58063005329
Sm	-1.21682199018	-1.4703897918	-8.09886565571
Al	5.08217250371	-4.05766682362	-11.5953902469
Sm	3.81512951727	-2.25170538884	-9.13668527731
Sm	5.12770021022	-0.962234540419	-11.2949459272
Sm	2.84598155682	-2.06087900702	-12.2365326197
Sm	9.9049773248	-3.42092492951	-8.4581634348
Sm	7.22949621857	0.50745396888	-10.3533856156
Sm	7.51666869461	-2.04039857591	-11.8369972618
Sm	9.03257402974	-0.755482221954	-13.8008127934
Al	10.2243343263	-3.31465871744	-11.6101444705
Sm	12.0108441601	-1.14023858279	-9.48314776723
Sm	13.1089046104	-2.21682298026	-11.8119099123
Sm	11.3567681966	-2.04643528335	14.0139682339
Sm	12.458611857	-3.89817522478	-9.51882587658
Sm	9.43284879112	-0.889784083707	-9.83152697368
Al	-10.4956798093	-0.577243257402	-8.57155976462
Al	-12.2854007544	2.24205009544	-12.1096315551
Sm	-13.0406706041	1.53136307516	-8.80097557676
Sm	-10.7098266097	2.12654954565	-7.21250186353
Sm	-12.5515419561	-0.950700228347	-11.7284609253
Sm	-11.1824140306	2.53765857433	12.909042626
Sm	-8.80709602646	2.05418633396	11.1495475776
Sm	-9.97136882681	-0.411277211833	-11.6782989621
Sm	-7.96616492903	1.29319409609	-7.54262820508
Sm	-9.25364867965	1.82420511702	-10.1852847312
Sm	-7.22575174471	4.2910930118	11.127388014
Sm	-5.26298027269	0.7394666305	-7.5947051302
Sm	-0.238342136559	1.02718597378	-7.33187961976
Sm	3.50578519474	2.5022889346	-9.40269643722
Sm	7.14409867661	4.39694539495	-12.1175833752
Sm	3.74507934882	3.02519486419	-13.3993691688
Sm	2.80679585677	0.421021864716	-10.919111524
Al	9.10727217002	2.09245863763	-12.5024690457
Sm	9.26268877508	1.70233027513	-9.27756615972
Sm	6.49550086516	2.58312792218	14.000646927
Sm	5.44145274635	2.05202998284	-11.5165331956
Sm	13.7984468045	-0.215473409428	-13.7385300049
Sm	11.1986494839	-0.240016486189	-12.0453018442
Sm	13.6654728866	0.612290338666	-10.8184524122
Al	13.7081552405	4.33853432704	-10.2746825962
Sm	-11.7015973684	5.48440540019	-11.2123159403
Sm	-13.2928006741	7.69523838585	-10.200683993
Sm	-11.3270855347	3.54988667046	-9.40681857551
Sm	-6.46028930667	3.98838729109	-6.88326507192
Sm	-6.95945939288	5.67855481999	-8.9823682624
Sm	-8.8205714744	3.83533350616	-8.30010939283
Sm	-9.59517013865	6.38152328932	-8.99189967787
Al	-0.436560382462	13.8556429643	-8.57436365365
Al	-6.06200086534	2.72124676738	-9.8030456301
Sm	-8.89804120392	3.97018389797	13.3722048717
Al	0.591098772249	6.23985681179	-7.69501658714
Sm	3.7870501978	4.69473984994	-8.04634374954
Sm	1.57109468465	3.09353168367	-7.35077913769
Sm	0.449585548914	10.7474142181	9.10336766616
Sm	0.506820377485	7.04259305712	-4.7111198394
Sm	3.60664289526	7.16975685351	-7.11770534251
Sm	4.52891017987	4.6475106241	-10.919537308
Sm	10.1848904574	4.09574229757	-9.33286907203
Sm	8.3551915988	5.95448455463	-10.1007917059
Sm	9.32298579423	8.42449219727	-9.05545130135
Sm	5.94425915668	6.66775950294	-8.66504498182
Al	12.3543334943	9.46344031496	-9.64266233931
Sm	10.1356652562	10.369878964	-7.46029613249
Sm	12.8289509257	2.36313383085	-13.0640535492
Sm	11.5105903864	2.18859525293	-10.7270392064
Al	13.3503205766	13.2821882758	-11.7844634965
Sm	-13.5067446271	9.16863304898	-7.55995023055
Al	-6.92954553469	8.57414414372	-7.78812597133
Sm	-12.1642390328	5.95007528889	-8.50881646185
Al	-1.13734289212	-11.7644567601	13.991997917
Al	0.905001529968	13.3515403065	12.1589681663
Sm	1.71458823954	8.97717046289	-6.55226291817
Sm	0.64038904244	-12.6530297175	-11.4271597793
Al	3.49154088377	-11.3678304836	-11.2039862161
Al	4.27617897046	9.96644465986	-8.31203662365
Al	8.03063445983	11.6579918831	-9.25620341147
Sm	4.50719870391	-11.2315605548	14.082167206
Sm	6.54163707203	-11.121746154	-10.2911503993
Sm	12.3137189583	-12.4532166547	-13.1909009944
Sm	10.2042790892	12.9451871457	-6.64870743574
Sm	11.2364502237	12.4353613104	-9.33782950352
Al	-12.1292013626	12.9401136219	-3.45939314008
Al	-12.1394775348	-10.004128414	-8.33944574112
Sm	13.3366418217	-10.7877373539	-9.07789422979
Sm	-13.5423472061	-13.1398159807	-9.40485868006
Sm	-11.9484027032	-10.3976714761	-5.28321655113
Sm	-12.5388238389	-13.038989692	-6.43839619192
Al	-3.77509828201	-12.7736981396	-5.52546492042
Sm	-2.65359170478	-9.7265922806	-5.85431596876
Sm	-5.46281631761	-9.94766880986	-5.40557277784
Sm	-0.970709016103	-11.3409941034	-4.36153052941
Sm	-1.24739590783	-11.6738014033	-7.1970360759
Sm	1.45649282546	-11.6529181215	-3.18211419739
Sm	0.254546542658	-9.2629245758	-6.48208379099
Al	5.35533331667	-9.6964996823	-5.72524121238
Al	1.53220328249	-12.5761189552	-6.09411383727
Sm	2.62140076606	-13.8735088726	-2.33834012202
Al	5.15721656272	-12.6403576898	-7.73738231293
Sm	7.84156730909	-10.2083773622	-7.6236307427
Sm	8.14868548855	-10.3468807363	-4.83067906603
Sm	7.74650018852	14.0082393649	-7.21003124793
Al	11.0818910171	-9.82118801116	-5.24706574331
Al	12.5441504664	-13.603281159	-7.40426827256
Sm	12.8308720381	-8.68470040481	-7.5374751625
Sm	11.0295664911	-13.4887378895	-4.68008695107
Sm	9.42658646434	-12.3198216855	-6.41258528189
Al	-14.0480647919	-8.18175731571	-4.67745193546
Sm	12.8746179532	-6.56880624883	-9.21390221078
Sm	-11.4822893474	-3.88104749322	-7.65000385144
Sm	-11.1605493035	-7.92070614132	-6.14071684629
Al	-9.34405747467	-5.42970392555	-5.92619685841
Al	-8.74837366281	-9.6057425217	-4.96655436705
Al	-6.50916122447	-5.66153627491	-7.95093671678
Sm	-6.62693815153	-7.15314875076	-5.08054304869
Al	-1.44837098402	-3.81397566075	-5.95336666307
Sm	-4.15817736081	-5.61171590766	-5.57430043238
Sm	-1.72476194632	-7.08342566669	-5.96869190033
Sm	-3.95261097227	-7.86703841162	-4.23219236865
Sm	0.2855060588	-6.57232421517	-7.77141480936
Al	3.25041437215	-7.41244273308	-7.19136403352
Sm	5.08871632167	-6.74547680635	-9.98530923037
Al	8.05214818748	-8.32583348522	-10.1398941657
Al	5.35365970181	-4.59042263057	-7.31258236011
Sm	5.17949568881	-6.55031639976	-4.83722840008
Sm	6.39870333083	-7.50932196285	-7.59885237307
Sm	10.7530608716	-10.865482743	-8.27488882454
Sm	10.0828160429	-8.16942082502	-7.87456787963
Sm	10.3786041947	-5.93761769246	-9.77171260093
Sm	13.4001189593	-0.0405930477948	-7.21771386617
Sm	-12.4447380017	-5.56559272947	-5.50596920924
Sm	-10.4075132137	-2.1447653627	-5.83470362222
Al	-6.28087128843	-2.76313917585	-1.98941405575
Al	-6.72400140254	-1.48311579651	-6.02181409782
Sm	-6.54925739353	-4.36118094272	-4.92895614143
Sm	-1.10321749789	-0.675762326423	-5.38398813138
Sm	-4.17540703537	-3.20866395236	-4.28704430639
Sm	-1.87403308883	-2.1323192919	-3.17961926152
Al	1.46840840494	-2.17567358495	-6.39810545773
Al	6.99193787556	-2.32895321553	-8.75387934478
Sm	5.0252449722	0.405567314984	-8.84983502616
Sm	8.40699280005	-5.70708597939	-7.86959349111
Sm	6.70276535783	-2.32541369708	-5.64071742879
Al	-13.5900936521	-2.43508507152	-5.19555483662
Al	11.4695581163	-5.71618910694	-6.60527679333
Al	11.2794676485	-3.37308605835	-3.7937134328
Sm	9.49416358359	-1.72155969161	-6.29158425661
Sm	14.0900950075	-4.51473813101	-7.34919872863
Al	12.6904431815	2.29656623149	-5.17196927955
Sm	-12.9669549867	4.22423002685	-4.62645193033
Sm	-12.4169442575	0.235276793884	-6.19567435156
Al	-6.04042828046	1.93264325224	-4.83247967679
Sm	-9.22456508347	0.389362049224	-5.30365775971
Al	-1.63650085546	1.17610886296	-2.94377633285
Sm	-4.32213143473	-0.495168698823	-4.02020416114
Sm	-3.0102208738	1.38600899105	-5.71721084303
Sm	-3.86367297394	3.31322613313	-7.46713623161
Sm	1.09315418628	1.23328962368	-4.93299740044
Al	-0.998377530148	3.83026834652	-5.61280586603
Al	4.2585435183	2.07924894525	-6.04398041252
Sm	2.37452609336	0.306930168152	-8.00777690199
Sm	4.45309399647	-1.15271671642	-6.56967778974
Al	7.46668485058	0.459264266061	-6.98538876945
Al	6.70968144132	3.48255207775	-8.88630229209
Sm	9.76521870823	2.95364403911	-6.8284321757
Sm	7.20664585811	3.30080500756	-5.79698203844
Sm	12.4651750577	2.33341559325	-8.25859878122
Sm	12.1505802179	-2.60195011274	-7.0296039718
Sm	10.7379836508	0.368194902695	-7.48043090196
Sm	-10.3403163708	4.74687710876	-3.84422132926
Sm	-12.9657197656	6.84055841233	-6.04380194149
Sm	-13.6442677482	3.92888386953	-7.2746124894
Sm	-10.937170514	4.77745732363	-6.51048394768
Al	-8.31028567856	6.28030716943	-5.95505184563
Sm	-4.2386281251	4.63107584056	-5.0498350042
Sm	-10.5968185889	8.09326367804	-7.08481032466
Sm	-11.1052960879	7.60491133599	-4.39215854922
Sm	-8.77463433856	3.26784864688	-5.57477249379
Sm	-2.35947182041	6.78092196226	-5.64139530043
Sm	-4.76513191899	6.20834126549	-7.36864116244
Sm	2.61077018997	4.93617921638	-5.4148681048
Sm	3.22440863519	11.0088600222	-5.54447716333
Sm	6.78055226489	7.56050893948	-4.8461291861
Al	8.75460268008	6.03769539834	-6.97112016448
Sm	10.6581169552	5.31182778302	-4.44230001569
Sm	5.592434623	5.45711014468	-6.14167845309
Sm	7.15457611458	9.02179180369	-7.38651515101
Al	14.1327771255	9.34654075656	-4.44192420426
Al	11.7708532718	7.997146572	-6.31673115555
Sm	13.6267862789	6.57854084159	-8.10715868133
Sm	11.7855747216	4.76084523179	-7.13181037008
Sm	11.2456010252	6.50896146772	-9.27614442289
Sm	13.2188922842	5.70178459905	-5.03744260396
Sm	-13.5152499042	12.5224825757	-6.14640800834
Sm	-11.5371489735	10.3583316387	-5.55669813598
Al	-8.53902154728	9.33684115826	-4.64502923791
Sm	-5.4434195867	7.36200167515	-5.00205774673
Sm	14.0680773519	12.2615875199	-8.85129956155
Sm	-3.76199460946	8.93199981742	-6.77776528341
Sm	1.5012637504	13.0017462214	-4.46695102265
Sm	2.80759301161	13.0489149329	-7.43340637482
Sm	0.568229418845	11.5513693306	-6.59914625734
Sm	-0.952939012419	13.9885166939	-5.44457372258
Al	4.02447736497	11.493948419	-2.63325589229
Sm	5.70862441566	10.0711894292	-5.16553218023
Sm	4.06926827698	13.683444248	-5.04667778592
Sm	5.58651933569	12.4053470967	-6.9349432741
Sm	8.05935693586	11.4152715992	-6.10622657395
Sm	6.59190966973	12.6332692882	-4.23719544639
Sm	12.5939955784	11.076753631	-6.85891863
Sm	12.5818900073	12.3002771588	-4.43548556612
Al	-12.4425532501	-9.81524837222	-2.22507036303
Al	-9.17615049965	-10.2785598501	-1.74474881911
Sm	-13.3226880575	-12.756951795	-2.35291105756
Sm	-9.69642676163	-13.474378203	-1.572652728
Sm	13.7395125608	-13.5308409609	-4.58346625557
Sm	-10.8892743651	-12.3005932168	-3.74271259753
Sm	-6.53080121957	-11.8308931935	-3.51849224383
Al	-1.03262742268	-10.1329954547	-0.879935471393
Al	-3.61540156484	-10.5512046469	-2.90065803902
Al	4.24059722422	-10.7280157876	-1.67010517525
Sm	1.50709660733	-11.867481135	-0.515661598175
Sm	5.94756654101	-12.9205970175	-0.116918671902
Sm	4.09815912523	-12.0629701618	-4.39250023167
Sm	6.87990267407	-11.5166490687	-2.83259709802
Sm	9.75220183342	-11.7173063498	-3.13996245045
Sm	6.38928115526	-8.7781072874	-2.95714947451
Sm	7.87063744588	-10.9776306681	-0.431402901851
Sm	6.75653875584	-12.8961055427	-5.1169062638
Sm	8.30980570065	-13.932616459	-2.99821403984
Al	13.4614217121	-11.8312577307	0.137224551991
Sm	13.7928466218	-11.0153697804	-6.14754005224
Sm	12.7695740596	-11.3232622106	-3.14761437455
Al	-8.81710366406	-4.54213464314	-0.007335552395
Al	-11.2573868944	-4.14711268815	-3.12928014804
Al	-13.1246389725	-6.41068285563	-1.45058921794
Sm	-10.5235524771	-7.36241253998	-3.27770807386
Al	-5.3280749702	-5.84998507672	-2.30764292038
Sm	-6.33410183703	-8.94071634957	-2.81768294586
Sm	-7.87371723828	-7.35195538613	-1.224847396
Al	0.0686134705135	-6.6777187418	-1.27489666963
Sm	-2.99061394126	-7.83120524995	-1.65333642981
Sm	-1.06953276223	-8.5406913107	-3.72334484353
Sm	-0.379809031827	-8.03028680087	1.49997721853
Al	1.34021079291	-6.60205980186	-4.60092878522
Sm	2.44607766564	-9.69068706336	-4.92326600539
Sm	1.42080294965	-9.14247311487	-2.40458486508
Sm	2.84171286795	-5.41376592773	-1.60252632707
Sm	3.70292605496	-7.8952072775	-2.97285341364
Al	8.30535653713	-7.33159093976	-5.22321327829
Al	9.33164954774	-8.72581533124	-2.05872273073
Al	5.87244640151	-6.05170180132	-1.60176409975
Al	11.7575845093	-5.82022729495	-0.921484688666
Sm	12.7017343311	-8.85333045477	-1.90887587796
Sm	11.3431982942	-6.97900886203	-3.78941395906
Al	-11.4233708536	-0.697197438299	-3.21812179504
Sm	-14.122426739	-3.07264168348	-2.0683767505
Al	-3.02817003976	-1.79008768171	1.43061460194
Sm	-9.43589604771	-1.67950139186	-1.07171277093
Sm	-8.33339887888	-5.34633767305	-3.00992023605
Sm	-8.68977415813	-2.67963725997	-3.86854061908
Sm	-5.3981573316	-4.00900593471	0.591931135018
Al	-2.07613158591	-5.40604020327	-3.25564554353
Sm	-3.37509786519	-3.50259328639	-1.24687082325
Sm	-0.88972108459	-0.967844384741	-0.805092047724
Sm	-3.75431005095	-0.823264543451	-1.49129547842
Al	3.84374635295	-3.26501650639	-3.71954203405
Sm	0.669819429266	-3.92140787073	-3.16436527277
Sm	1.71170910241	-2.49540552775	-0.919055790934
Sm	0.7283450032	-1.22096563101	-3.37346556563
Sm	4.13056239405	-3.5211558093	0.0475237442167
Al	8.5669046769	-1.69342834388	-3.24263846145
Sm	6.25653764354	-2.89977743561	-1.53042555817
Sm	8.9924038337	-5.52098302852	-2.87172081725
Sm	6.72092989522	-4.42182859523	-3.98336679757
Sm	8.78191367524	-4.2070559916	-5.69128820619
Sm	10.8635016373	0.221044360436	-2.5998220158
Sm	13.664263905	-5.20756763806	-3.90813972835
Sm	9.60293519609	-3.66077923839	-1.13973681557
Sm	-11.3566478182	2.15382768524	-4.58279237915
Sm	-13.5813333093	1.95130850856	-2.89242844227
Sm	-11.2279385586	2.0416174556	-1.72277856063
Al	-7.26916634326	-0.0685484664037	-2.75111737973
Sm	-9.03741728134	2.26408723178	-3.13179697013
Sm	-7.19424646676	2.6029909357	-1.16291598555
Sm	-4.64501439213	1.88419207963	-2.02946994549
Al	1.6177057774	0.958711389766	-1.36703192539
Sm	3.16968685047	-0.278873689833	-4.09883915448
Sm	4.38204404042	1.15111671349	0.061539066458
Sm	4.53584294774	1.74241219086	-2.63683696761
Al	7.71163297687	2.16008231778	-2.90660603616
Sm	6.60904227214	-0.22815235303	-1.27172427489
Sm	5.88216034972	-0.229637941244	-4.0837289455
Sm	5.01693883159	4.20094838792	-3.7734900169
Al	12.4953097909	2.02821642	-0.596468905772
Sm	9.70067316102	0.987187034884	-4.94001717771
Sm	13.4866213115	-0.493755852729	-2.87872451954
Sm	10.6323417124	2.97337015588	-2.96674647051
Sm	11.8213890948	-0.720014540241	-5.06950071191
Al	-11.5012686914	6.95772966948	-0.16012546015
Sm	-12.3833860055	4.47881223795	-1.8781170986
Sm	-13.2893326333	6.7367363033	-2.94010911266
Al	-6.92959509068	4.77237191629	-3.33476585451
Sm	-9.61706413191	4.29069344576	-1.2175360913
Sm	-9.24477584557	6.89166926428	-2.58636883301
Sm	-0.925894111167	9.18471210553	-5.89804052706
Al	3.69880015157	7.72878348831	-4.12422097071
Al	4.675910849	4.22941049027	-0.480435338597
Sm	1.35261771304	9.84830546129	-3.89120804786
Al	6.5041173294	7.41303829955	0.488523417089
Sm	12.2130735692	7.20580001008	-2.89216453511
Sm	6.00280039306	6.37415628032	-2.43761013506
Sm	7.27658526231	4.38193744285	1.37462972965
Sm	7.96759848813	5.13879106684	-3.96980492153
Sm	7.82382759208	4.80520601236	-1.22884238734
Al	13.7322436566	5.48148780467	0.18331633297
Sm	13.1955059163	4.31538520963	-2.69833499306
Sm	11.103769227	9.80809792111	-3.72373053704
Sm	10.9156655982	5.14597672876	-1.37536954199
Al	-11.4829341617	9.81049192127	-2.15730959369
Al	-13.1804135332	10.9448074075	1.05965219943
Sm	14.0598210924	8.57388905257	-1.06596120727
Sm	-11.0793460996	12.85518431	-0.299884973347
Al	-3.19644754124	9.48943828785	-3.73353501354
Sm	-2.29466126003	11.5606699624	-6.4556581786
Sm	-3.99284076175	-13.5203454157	-2.41090583426
Al	-0.809233044911	-13.6899679203	-2.29980414555
Sm	-3.01778577787	13.6750813695	0.0228171346159
Sm	-3.11032336795	12.7480990302	-4.02478888722
Sm	-0.750072694736	11.4661602874	-4.09956965781
Sm	-1.94973148222	11.6878432518	-1.65379693715
Sm	0.985732634451	12.0368646392	-1.9703222059
Sm	6.10692538642	9.1016749801	-2.37106228174
Sm	5.38599184146	-13.8656681713	-2.60495750837
Al	7.20488495041	12.093299517	-1.0514889361
Al	11.6570243528	14.0451074461	-1.81204534082
Al	9.06385032751	7.64137711896	-2.38757562008
Sm	9.81308588814	12.4059933493	-3.95707659888
Sm	9.05590675951	8.83204477248	-5.40701118027
Sm	8.11454917322	10.4310470399	-3.48953685434
Sm	10.1811194485	11.0852179313	-1.47238226633
Sm	13.5150715854	11.2043454144	-1.98476926013
Sm	-12.7374554155	-11.5673034516	2.47630896905
Sm	-12.7899692876	14.1303636752	1.63675385674
Sm	-11.8036084151	-9.34240256944	3.60800883962
Sm	-11.6355195954	-12.1342451457	-0.0678740090052
Sm	-6.05697400337	-11.0617919907	-0.985032611824
Sm	-8.56915154817	-12.1427167488	0.597939633749
Sm	-10.3059604804	-10.1839199433	1.46687281685
Sm	-0.93507798427	-12.6765997959	0.807211906744
Sm	-3.54318737784	-11.9774242571	-0.154002135069
Sm	-3.33771663403	-13.0028832505	2.36016458068
Sm	-4.96656608476	-10.4499680651	2.92866057644
Sm	-2.22491472881	-10.4428099355	2.12931596847
Sm	-4.1980962992	-9.20485492095	0.363209198463
Al	-0.44209184372	-12.2612545929	4.10351183557
Sm	3.59960097511	-11.4568786311	1.2870431817
Sm	0.898095366568	-10.5503663606	1.94272377837
Al	6.52593404101	-10.8766394898	2.38143954613
Al	1.43453309224	13.1297286628	4.62311144619
Sm	8.92269381138	-13.5848840701	-0.328093240318
Sm	6.35761268312	-8.5831491263	0.13525763802
Al	10.2768041609	-12.0388307785	2.08385185018
Sm	10.3636657001	-8.99363501679	3.52560012817
Sm	10.7083345493	-11.151513801	-0.788257390642
Sm	12.8274922044	-10.118488301	2.79033547062
Al	-13.181904175	-8.91100545392	0.827235630197
Sm	-11.798514786	-5.65079620193	1.32251851853
Sm	-14.0135290167	-7.86476197606	3.71159655902
Al	-2.69718409588	-5.87315630059	0.70662004354
Al	-7.37304579689	-9.30969939472	1.07249160751
Sm	-6.59492402024	-7.98278699995	3.67916568111
Sm	-10.3502106045	-7.69728957952	-0.0895302978104
Sm	-8.5992051173	-6.4800232012	2.24717835427
Al	-3.52166597786	-7.67663546675	3.22180177117
Al	1.59471864248	-5.10871737127	1.38818722353
Al	2.82767861654	-8.48973472471	0.275844873803
Al	2.24756771516	-8.18819614317	3.63218056022
Sm	5.29884990182	-8.59855512295	4.27177107263
Sm	4.7284879413	-5.91515481487	4.02570012203
Al	7.63064618967	-6.84619034568	2.82602762098
Sm	10.6348203323	-6.68558975757	1.89597582152
Sm	4.67220786731	-6.18795614201	1.34088525334
Sm	8.67315538832	-6.36849589629	-0.133094362435
Sm	6.81512707166	-4.3471159552	0.788010520217
Sm	13.4039034437	-6.46671576714	1.63156169623
Sm	9.02803558167	-9.08782547261	1.11939265345
Sm	11.7376271063	-8.91708163931	0.630430294613
Al	-11.2400842934	-6.27826587289	4.28808017692
Sm	-11.6398350455	-2.92901353312	3.69160255755
Sm	-13.4771828104	-2.16237864467	1.86643600472
Sm	-11.8021348873	-3.30957363501	-0.302783059739
Sm	-13.8038934573	-4.59679806211	3.54516626019
Sm	-10.4823414226	-1.70690574846	1.51208677362
Sm	-5.88175391263	-6.69853640652	0.803768753168
Sm	-7.30693449288	-2.75079371922	4.98391300959
Sm	-9.19678105775	-3.94574385327	3.15696439501
Al	-3.88668953794	-1.30418904452	4.84400255122
Al	-6.01660382766	-4.97292501231	3.42067182593
Sm	-2.99827946985	-4.40662526566	3.43655163898
Sm	-4.33325570516	-4.11079314007	6.00238019211
Sm	-0.759992054039	-3.72160603736	-0.499836421384
Sm	2.92362825942	1.24843165936	4.87197367073
Sm	0.183232402049	-2.32521787628	1.78542237551
Sm	3.9349947345	-3.46523166181	2.81716277203
Al	7.12549816952	-3.5408933687	3.68055798457
Al	5.74377582393	-0.995053977636	1.68316253913
Sm	8.24537769265	-1.99581988422	0.360327447211
Sm	9.9589559804	-4.69757511354	4.18656194643
Al	10.010591492	-1.35447608373	2.85071055736
Al	13.6494967838	-1.32200717697	4.53987503768
Sm	13.9861680678	-4.18709520464	0.40881984877
Sm	12.4790071532	-3.99922212315	5.48061992965
Sm	12.1395180234	-3.84683874519	2.4042587183
Sm	9.58372366022	-4.23385991488	1.48641705307
Al	-13.8700844256	6.76263390366	4.74868297461
Al	-12.1517470401	0.635694905736	3.00310972922
Al	-12.8212768912	-0.210107212039	-0.343639109662
Sm	-11.835547195	3.36436645438	0.640188581306
Al	-7.32816429063	-1.80127456645	1.83922978406
Al	-9.36226215888	1.20991795911	0.488191301067
Sm	-5.85838834963	0.161140568803	-0.0431693059359
Sm	-7.74295246765	1.45792717796	2.96820015142
Sm	-5.21610852266	0.293801555812	2.56893258657
Sm	-0.157277740397	0.595598845121	1.39144033257
Sm	-2.75777502828	1.35374552287	2.85934530658
Sm	-2.83442880318	1.11536202731	0.110870551058
Al	2.41879986023	2.58036252783	2.04778857375
Sm	5.53063908454	2.32418839243	2.4081016251
Sm	4.03641077659	-1.11675144764	-1.45004286409
Sm	2.59118220192	-0.834834540374	1.2611989405
Sm	6.94611505011	2.09840543485	0.0106190027107
Sm	8.24124680434	1.41681847327	2.36647059007
Al	11.8285395615	-1.77758080601	-0.138666168573
Sm	9.26140514833	0.410471116749	-0.357851364453
Sm	13.6950823467	8.21235353746	1.76821416443
Sm	-11.835981205	8.31090540619	2.7348229257
Sm	12.166491682	9.06304329233	5.27544681572
Al	-9.51521159168	6.53157735343	4.54280700397
Sm	-9.37463734133	5.07078603343	1.38468325829
Sm	-9.45878601727	9.68297585475	3.39609758494
Sm	-10.3296938016	3.12990255111	3.0600265349
Sm	-11.9588621926	5.45076754493	2.6010036729
Al	-5.27526800315	3.1114544562	1.17166532533
Sm	-6.1324563144	6.07860684088	4.31152368339
Sm	-0.240759198264	12.8999277432	0.308165112289
Sm	-7.82035623981	4.07748080035	3.46349322346
Al	4.97020774676	3.46501703989	5.55363055647
Sm	5.37852294257	8.02439711399	3.2700641635
Sm	4.99862970057	5.12352243807	2.73082323913
Sm	9.34886047462	6.15411246008	0.65802515345
Sm	7.60893015659	3.67793024615	3.97081029562
Sm	8.00910399412	9.30362685065	3.24246304719
Al	10.7461541863	7.97570198755	2.8338491715
Sm	-13.9099029743	4.11458613622	7.07172458243
Sm	11.4906205974	7.67173717181	-0.257518098992
Sm	12.0254548497	10.307595255	0.382014849692
Sm	9.57519774622	3.14623367275	0.0950869933624
Sm	-11.9679118506	13.8524171052	4.17021287293
Sm	-13.7457277994	9.90355211836	3.93136844188
Al	-6.61896875563	14.1327772348	-1.01623517071
Al	-7.10012236449	11.8621794701	4.1665393568
Sm	-10.3130152289	12.3963910739	2.42680884462
Sm	-7.94454308937	14.0096102977	2.10649598543
Sm	-5.9750737967	-12.3390125159	1.39101026464
Al	-2.76788138151	10.8555887556	1.31685021305
Sm	-5.27471010249	12.9858221826	1.54411826267
Sm	-1.26600593633	13.5445765704	2.65640170233
Sm	1.52840842216	-13.4631620628	1.89222194871
Sm	5.28061833504	9.50664936945	5.62546802221
Al	9.62739225652	12.1301062798	1.72051951392
Sm	9.12148325206	9.23926167453	0.388922297067
Sm	-13.77903608	13.4457053194	-0.747121646168
Sm	9.96447750444	10.9780972378	4.81610132849
Sm	12.5145199857	13.4377318082	1.28466835062
Sm	12.1550683381	10.8150024324	2.98157396529
Al	-12.5658904195	-11.2118043221	7.69687744397
Sm	13.2597632614	-12.8221518041	3.15584716216
Sm	-14.0069628774	-10.7806447578	4.94756118836
Sm	-11.3471276427	-11.9498458276	4.87828278841
Al	-7.95728533406	-11.2779951604	3.95739271062
Sm	-10.3474357059	-12.9165513599	2.49030370697
Sm	-6.93495732305	-13.497372929	5.97590643361
Al	-3.53141815213	-12.0692041305	5.3206292449
Sm	-6.85425725095	-11.076124282	7.15266907664
Sm	-0.794798450867	-9.0501657396	4.1066778358
Sm	2.26669300631	-9.71225815742	6.62141674364
Al	3.57586681533	-11.346025615	9.01319288126
Al	3.35808095852	-11.7564545365	4.48747755394
Sm	1.24068402898	-12.3998936455	6.82245339033
Sm	5.06158008725	-9.87531407265	6.69921925229
Al	7.12056455073	-10.8632783642	8.88324765438
Al	8.72477074396	-13.9022616405	5.20721623751
Sm	9.28411624424	-8.92020114327	7.83925485173
Sm	5.84278491779	-12.5433215269	6.57094039096
Sm	8.30678300653	-13.6880215369	8.37988408881
Sm	11.3455972147	-11.4524849545	4.93923575123
Sm	9.83202375292	-11.7398183198	7.17111077638
Sm	-12.8566128118	-8.57097829445	6.05100090143
Sm	-13.9764338873	-7.90174647754	8.33965775305
Sm	-13.95096305	-6.16571848717	5.93998092004
Sm	-8.3027521446	-5.99516225514	5.28174961891
Sm	-10.3706371693	-9.56666608896	5.85876760739
Sm	-5.38805935819	-9.63701811178	5.43364275805
Sm	-9.230509359	-8.58479908459	3.6464865035
Sm	-2.36710872233	-6.08420423478	5.86260365331
Al	0.330187313141	-7.33789412665	6.74042605007
Al	3.86727452989	-6.92792303631	6.90829762007
Sm	1.7800878568	-4.18525116552	6.95722586708
Sm	2.01034938488	-5.68079938829	9.21044308082
Sm	2.30986462347	-8.41330444702	9.3016002666
Sm	2.03641699006	-5.17271556908	4.53765023167
Al	7.94725316683	-9.95444870466	5.32945184646
Sm	6.66845613706	-7.90209821433	7.96605866731
Sm	6.02889597894	-5.07664203341	8.44560134509
Al	9.17242340126	-5.89684029815	8.64101737039
Sm	11.7353048968	-8.5170395688	8.74830883593
Sm	12.353660479	-8.72913262173	5.56274705507
Sm	11.855092492	-6.39547162809	6.9968751897
Sm	12.0559643254	-6.40965139196	4.17431852543
Sm	9.56652486644	-7.19999057529	5.561689572
Sm	-12.7341558911	-3.7264900529	6.06880339164
Al	-5.92696653345	-1.5737230458	7.66100576748
Sm	-5.20067327765	-6.88385638613	5.9013814328
Sm	-9.99722903276	-3.72133657628	5.9296090312
Sm	-6.80053814385	-0.0974525662689	4.89739748989
Sm	-8.98867658305	-1.17462602602	6.61009750727
Sm	-9.42449365239	-0.726854000072	3.86278040697
Al	-0.743994892696	-3.46149840156	5.15036103692
Sm	-0.570411037567	-6.21651975171	3.62701235481
Sm	-2.75595875356	1.47970384852	5.62575319947
Sm	0.237236620439	-2.0985603285	7.94304725342
Sm	-2.58049394055	-2.45983128858	7.52843295466
Al	1.90895971798	-1.70888952332	4.64032611786
Al	4.72832080747	-3.52742493597	6.02180381363
Al	4.44423793367	0.982365046152	8.15638117438
Sm	1.48318098185	0.376512136416	7.01876149869
Al	8.0985055972	1.39871831872	6.23505532352
Al	6.00152461973	-1.87282568364	9.64604079236
Sm	6.89756373516	-6.18730157284	5.84161739036
Sm	13.7750249205	-2.19483240309	7.52794643041
Sm	9.31446261703	-2.63627227293	8.65486248627
Sm	-12.9213125096	1.49784284088	6.10298835278
Sm	-12.8015518634	2.30388433513	9.19614621943
Sm	-13.689016831	4.83989659068	9.7969255177
Sm	-11.341400554	0.103644189944	7.93541553109
Sm	-11.6379223703	-1.07017757543	5.62139650285
Al	-9.53068712007	1.85985961124	5.77316852962
Al	-5.15782758696	2.90421073312	4.48068711986
Sm	-4.52349799835	2.77904075753	7.42233550113
Sm	-9.88441114995	4.73325523902	7.35022928931
Al	-0.0927077206572	2.37501929124	4.41836125735
Sm	-0.985263102769	-0.440146356915	6.26033403333
Sm	-0.990079874536	-0.658147869981	3.65502391526
Sm	-2.19994312776	4.02839663191	6.43697477367
Sm	1.85284121549	3.19824477973	6.62824738291
Sm	3.68511079243	3.93200311462	8.39082390262
Al	9.5659795704	3.50542028646	9.7210533145
Sm	7.46972473524	1.00654883877	9.58470963658
Sm	10.1199436129	0.554525522311	8.60177237793
Sm	6.54343467138	3.44471174568	8.35273190373
Sm	6.65084512163	3.23929831568	11.0966064613
Sm	12.7988804598	2.43594733984	9.02090107396
Sm	10.9881061645	2.71661828519	6.91698107731
Sm	11.9488252857	5.01260114451	8.22950241661
Sm	12.7507124626	0.335061145014	7.17228688572
Al	-12.1684378601	6.86440913497	7.79608680552
Sm	-11.4702229445	9.02176164836	5.47338714342
Sm	-13.8614477515	9.55402686658	6.62497284798
Sm	-11.7177144576	4.29796099217	5.31780096021
Sm	13.0148856846	7.46593318789	7.58502933629
Sm	-7.08499944282	7.30395973697	6.64707880667
Sm	-7.43186603621	4.39842829731	6.1801665133
Al	-1.51342626986	8.26298456452	4.66780826143
Sm	0.0530884125678	5.62400277697	5.70628044552
Sm	-3.32879130747	5.64316675501	4.48575853831
Sm	-2.26621914686	6.62671480938	7.29726561163
Sm	-6.89821198825	8.73557582398	4.36823245297
Al	2.13994217726	8.34593297888	4.85437503281
Sm	4.52125669001	6.47803979355	5.23190433556
Sm	2.40382241088	4.86796809176	4.35697375579
Sm	2.56764340529	5.9426509261	7.05268423657
Al	7.27025519069	8.87396735732	8.17474387115
Al	8.7371295308	5.04685352254	6.52382088435
Sm	7.07071283387	7.43803532745	5.45010788792
Sm	5.85372857485	5.93167866217	7.44141888903
Sm	7.63583007717	5.85245812982	9.59844707676
Sm	9.49857097305	8.42703493038	5.92103381414
Sm	7.96160633213	6.3381768384	3.18802226052
Sm	11.3646297974	6.38365067434	5.59241932028
Sm	-12.8898643266	11.8812655221	5.70844504023
Sm	-10.3047747182	11.6977314517	5.10167901809
Sm	-11.1674282151	14.0682183727	6.84916839098
Sm	-5.67395704488	-13.5944553493	3.69881133675
Sm	-4.77464808883	13.2105334597	5.95310983906
Sm	-8.51300755756	12.5658988765	6.97758836829
Sm	-9.22918174262	-14.0948684598	4.68111268413
Sm	-8.8280836328	9.58084677857	6.24948486317
Sm	-4.42711713623	10.0046483597	3.94151047521
Sm	-1.10399863971	11.2551642822	3.92011897553
Sm	-3.62105916177	12.7503704969	3.69393081737
Sm	-0.175137719675	10.6257489837	6.37664769083
Sm	0.406745477429	13.1517351909	7.50567470026
Al	6.00437661215	12.5396096975	6.7053342186
Sm	5.61416617931	-13.6939686955	9.17164014002
Sm	4.06688180403	8.09577310813	7.68048901115
Sm	3.32063582195	-14.0642816761	7.29438749426
Sm	7.68716370437	-12.8947566602	11.2871704921
Al	13.8947838994	-13.6091100125	6.11490244833
Sm	11.4626255978	13.6106444135	4.07172130751
Sm	12.5877409572	11.7167936582	5.69551850264
Sm	11.2552944795	13.5941091064	7.37903196515
Sm	14.0369373095	12.678894679	3.49934604151
Sm	8.98174238042	11.9852609634	7.41772924544
Sm	-13.7982244456	-13.3972865019	13.7882133642
Sm	-13.4326431893	-11.6780590293	10.7111925995
Sm	-13.3362326771	-10.6801877106	13.3319221871
Al	-1.72467059606	-12.6414172963	8.15214821788
Sm	-9.62584188233	-9.68096335665	8.42843731746
Sm	-9.41931310056	-12.0655432997	6.80284104056
Sm	-4.88128423953	-13.2196459802	8.00820151345
Sm	-4.2041758552	-10.4643847484	7.95983454825
Sm	-1.23420230087	-10.326995268	11.0293233197
Sm	-0.565807913254	-10.3647909444	6.43551848248
Sm	-2.83339592958	-8.80725608933	6.0309947799
Sm	0.686808998353	-9.2785931363	13.0681146025
Al	2.87586786067	-6.86202925126	12.2999004337
Sm	0.578616270483	-10.475473161	8.94693925423
Sm	3.15565383227	-9.93000862115	11.9244655245
Sm	4.93536253685	-8.61520060545	10.0278264664
Al	5.72746531203	-8.43875871895	13.2504983404
Sm	8.07885606635	-10.2179723838	12.3370294245
Al	10.2420371862	-10.9717738048	10.1131092894
Sm	12.5896372615	-10.7435011833	7.38728155357
Sm	12.4561905122	-11.9034765977	12.1687470372
Sm	10.5727221216	-9.63884909429	12.8617403859
Sm	10.648499986	-7.37717244037	11.104167173
Al	-10.9750391775	-6.64274620677	7.62124765961
Sm	-13.8888538898	-7.88013228638	-13.7083140972
Sm	-12.9587892703	-6.4453052831	10.51457983
Sm	13.20776947	-5.95601795077	12.6186919
Sm	-12.0291363497	-9.15059812834	9.88530416652
Sm	-7.88919487338	-8.57905844001	6.24924216209
Al	-0.321092280785	-7.33638330599	10.6078234563
Sm	-0.773750532989	-4.81052755883	8.10783217947
Sm	-1.79734980801	-9.14377817326	8.53554542704
Sm	1.09781283517	-7.14127377898	-12.917119391
Al	8.49325410233	-6.52509034357	12.9983357002
Sm	7.95194586145	-8.27514416223	10.4306754834
Sm	7.91927858486	-3.99414911578	10.9150963469
Sm	6.04073518172	-6.19879213595	10.9736604449
Al	13.3392714712	-8.88393173901	11.4184087175
Al	11.175113771	-3.88231631437	11.2499553936
Sm	10.940234924	-4.82863506894	14.0942726194
Sm	13.6323512516	-3.38718088735	13.8115262477
Sm	12.6155941791	-6.10215734785	9.75066343736
Sm	-13.7037981777	-4.84853185391	8.35497266618
Sm	-13.931489745	-3.68295788135	11.0669289327
Sm	-12.2295271089	-2.38751857713	8.98790575193
Al	-5.61049893113	1.4869316397	10.0707749877
Sm	-6.73642993755	1.46510285773	6.99813569959
Sm	-9.42083278677	1.84175993665	-13.1926982554
Sm	-8.48884039413	0.339009683911	8.83973767141
Sm	-3.27182472679	0.296082125867	8.00948094532
Sm	1.19481630811	-1.72148904685	-9.69189462072
Sm	2.97021304115	-1.81824504209	7.98087088534
Sm	4.09394429243	0.301093334612	-13.7216383283
Al	5.81973046677	-2.31000763985	13.6477153008
Al	9.41426759305	-0.989140991323	11.3550471559
Sm	6.71292226743	0.232802819157	-13.1228624355
Sm	8.90853392853	-3.21476739526	13.3479357336
Sm	12.8895503169	-1.10435892206	11.901298139
Sm	11.847061524	-1.41697311538	9.3785368009
Sm	11.3920606191	1.31093118686	10.9799987501
Sm	11.7768112205	-3.95608289298	8.17907685712
Al	-11.1788988244	-0.0159036143022	10.9867103009
Sm	-14.0125043898	-0.0993338520404	9.58941272977
Sm	-7.78323295236	3.27121899037	8.65761916703
Sm	-10.2678818468	2.38652825609	8.77568830599
Sm	4.17908980186	0.180691641964	11.53475364
Sm	-2.61084776209	3.13814623746	9.24578178943
Sm	-0.684481319133	2.00728569504	7.54660296843
Sm	-5.18604419444	4.63383602515	9.3203566539
Sm	5.02319327504	4.51615354153	12.9175482635
Sm	1.60585280721	2.0472123729	9.24500632744
Sm	3.91688279829	2.86718517263	10.8569127077
Sm	8.86488663845	1.9484430812	12.4415445818
Sm	6.74294171855	0.334739765721	12.2959518921
Al	14.1280280745	1.97356731341	12.1817405331
Sm	10.9899996842	3.35344943358	13.2841383169
Sm	11.2663979391	0.65008998558	13.5762384486
Al	12.4016416419	7.4509853472	10.6312184534
Sm	-13.8762388457	9.42366284631	9.25295064565
Al	-10.4527244274	4.7786041599	10.5884179002
Al	-8.75234987931	4.59194299947	-11.5452481099
Sm	-7.8052120782	5.98031364335	8.90219716856
Sm	-4.87756031151	5.34672738499	6.68859769757
Al	-2.40090901418	9.48876476338	8.64158141947
Sm	-4.33236413038	8.05169797715	5.92684932372
Sm	-4.98851419942	7.41741290612	8.52837410267
Al	0.121234070472	4.88403636462	8.74993585754
Sm	0.384800270707	8.06982595025	7.45321982979
Al	10.700779256	5.0985813471	-12.2374088778
Al	8.25569335728	5.09462562234	13.0343489276
Al	4.58035599277	6.09490429999	10.2551721391
Sm	10.1024135103	7.06491157223	8.42538411638
Al	11.2787807071	10.0749888901	8.0623686506
Sm	12.74940306	11.3402891278	10.475676865
Sm	12.2248177679	4.27439516483	11.019942513
Al	-10.3814921455	-12.4590170321	9.87985012549
Al	-11.259431006	11.0718461052	8.16490000116
Sm	-12.9295954051	14.1041801153	8.98001503568
Sm	11.8319913917	13.7583275991	13.4516428273
Sm	13.6474587555	13.9057295725	11.2541492375
Al	-5.87686369301	10.4903865242	7.14122161619
Sm	-3.3080145216	12.6193908911	8.11299178914
Sm	-7.65988330622	-13.4628643592	8.60738604662
Sm	-1.72406678266	13.4961640129	5.71380529429
Sm	-2.93854492336	10.889753262	5.98086018017
Sm	1.22320078898	-13.4123310489	9.43675689627
Sm	-1.26894946606	-13.0288945837	11.0935491207
Al	3.88663293681	-13.4144952648	11.8148789211
Al	2.87265945172	10.992679122	7.20784650666
Sm	-1.14413569339	12.8648813352	9.7437344075
Sm	5.64338566793	-10.9871952218	11.5252356112
Al	9.80939490061	-14.1369505112	-12.132377483
Al	10.4923430811	13.7164197829	10.5014677284
Sm	12.7412999096	-12.8139896305	9.11801144123
Sm	9.9011335309	-12.499370631	13.0955620868
Sm	13.8539237712	11.992676998	8.02990733723
